<configuration>
	<input>
		<net-file value="hello.net.xml"/>
		<route-file value="hello.rou.xml"/>
	</input>
	<time>
		<begin value="0"/>
		<end value="1000"/>
	</time>
</configuration>
